Version 4.1
SHEET 1 3008 1012
WIRE -80 48 -80 0
WIRE 32 48 32 0
WIRE 1104 64 448 64
WIRE 1440 64 1184 64
WIRE 448 144 448 64
WIRE 544 144 448 144
WIRE 688 144 624 144
WIRE 912 144 848 144
WIRE 1040 144 976 144
WIRE 1312 176 1248 176
WIRE 1440 176 1440 64
WIRE 1440 176 1376 176
WIRE 32 224 -176 224
WIRE 448 272 448 144
WIRE 560 272 448 272
WIRE -592 288 -592 224
WIRE -592 288 -656 288
WIRE -176 288 -176 224
WIRE -176 288 -208 288
WIRE -144 288 -176 288
WIRE 688 288 688 144
WIRE 688 288 624 288
WIRE 736 288 688 288
WIRE 848 288 848 144
WIRE 848 288 816 288
WIRE 912 288 848 288
WIRE 32 304 32 224
WIRE 32 304 -80 304
WIRE 64 304 32 304
WIRE 240 304 224 304
WIRE 288 304 240 304
WIRE 496 304 368 304
WIRE 560 304 496 304
WIRE 1040 304 1040 144
WIRE 1040 304 976 304
WIRE 1120 304 1040 304
WIRE 1248 304 1248 176
WIRE 1248 304 1200 304
WIRE 1312 304 1248 304
WIRE -560 320 -656 320
WIRE -400 320 -480 320
WIRE -320 320 -400 320
WIRE -144 320 -208 320
WIRE 912 320 864 320
WIRE 1440 320 1440 176
WIRE 1440 320 1376 320
WIRE 1504 320 1440 320
WIRE 1312 336 1248 336
WIRE 864 352 864 320
WIRE 1248 384 1248 336
WIRE 496 416 496 304
WIRE 560 416 496 416
WIRE 1040 416 1040 304
WIRE 1040 416 640 416
WIRE 1040 464 1040 416
WIRE 688 480 688 288
WIRE 1040 480 1040 464
WIRE 1440 512 1440 320
FLAG -592 224 0
FLAG -400 320 Vin
FLAG -80 -80 0
FLAG 32 -80 0
FLAG -80 48 +Vcc
FLAG 32 48 -Vcc
FLAG -112 272 +Vcc
FLAG -112 336 -Vcc
FLAG -208 320 Vin
FLAG 64 304 V1
FLAG 592 256 +Vcc
FLAG 944 272 +Vcc
FLAG 1344 288 +Vcc
FLAG 592 320 -Vcc
FLAG 944 336 -Vcc
FLAG 1344 352 -Vcc
FLAG 240 304 V1
FLAG 688 480 Vhp
FLAG 1040 464 Vlp
FLAG 1440 512 Vbp
FLAG 1504 320 Vo
FLAG 864 352 0
FLAG 1248 384 0
SYMBOL COMPOSITE_SRC -720 304 R180
SYMATTR InstName U1
SYMBOL res -464 304 R90
WINDOW 0 0 56 VBottom 2
WINDOW 3 32 56 VTop 2
SYMATTR InstName R1
SYMATTR Value 10k
SYMBOL voltage -80 16 R180
WINDOW 0 24 96 Left 2
WINDOW 3 24 16 Left 2
WINDOW 123 0 0 Left 0
WINDOW 39 0 0 Left 0
SYMATTR InstName V1
SYMATTR Value 15
SYMBOL voltage 32 16 R180
WINDOW 123 0 0 Left 0
WINDOW 39 0 0 Left 0
SYMATTR InstName V2
SYMATTR Value -15
SYMBOL res 384 288 R90
WINDOW 0 0 56 VBottom 2
WINDOW 3 32 56 VTop 2
SYMATTR InstName R2
SYMATTR Value 1k
SYMBOL res 640 128 R90
WINDOW 0 0 56 VBottom 2
WINDOW 3 32 56 VTop 2
SYMATTR InstName R3
SYMATTR Value 10k
SYMBOL res 832 272 R90
WINDOW 0 0 56 VBottom 2
WINDOW 3 32 56 VTop 2
SYMATTR InstName R4
SYMATTR Value 2.65k
SYMBOL res 1216 288 R90
WINDOW 0 0 56 VBottom 2
WINDOW 3 32 56 VTop 2
SYMATTR InstName R5
SYMATTR Value 2.65k
SYMBOL cap 976 128 R90
WINDOW 0 0 32 VBottom 2
WINDOW 3 32 32 VTop 2
SYMATTR InstName C1
SYMATTR Value 10n
SYMBOL cap 1376 160 R90
WINDOW 0 0 32 VBottom 2
WINDOW 3 32 32 VTop 2
SYMATTR InstName C2
SYMATTR Value 10n
SYMBOL res 1200 48 R90
WINDOW 0 0 56 VBottom 2
WINDOW 3 32 56 VTop 2
SYMATTR InstName R6
SYMATTR Value 10k
SYMBOL res 656 400 R90
WINDOW 0 0 56 VBottom 2
WINDOW 3 32 56 VTop 2
SYMATTR InstName R7
SYMATTR Value 19k
SYMBOL OpAmps\\AD795 -112 240 R0
SYMATTR InstName U2
SYMBOL OpAmps\\LT1057 592 224 R0
SYMATTR InstName U3
SYMBOL OpAmps\\LT1057 944 240 R0
SYMATTR InstName U4
SYMBOL OpAmps\\LT1057 1344 256 R0
SYMATTR InstName U5
TEXT -816 392 Left 2 !.tran 0 20m
