Version 4.1
SHEET 1 3392 1012
WIRE -80 48 -80 0
WIRE 32 48 32 0
WIRE 1232 64 448 64
WIRE 1696 64 1312 64
WIRE 2816 80 2032 80
WIRE 3280 80 2896 80
WIRE 448 144 448 64
WIRE 544 144 448 144
WIRE 688 144 624 144
WIRE 1040 144 976 144
WIRE 1168 144 1104 144
WIRE 2032 160 2032 80
WIRE 2128 160 2032 160
WIRE 2272 160 2208 160
WIRE 2624 160 2560 160
WIRE 2752 160 2688 160
WIRE 1568 176 1504 176
WIRE 1696 176 1696 64
WIRE 1696 176 1632 176
WIRE 3152 192 3088 192
WIRE 3280 192 3280 80
WIRE 3280 192 3216 192
WIRE 32 224 -176 224
WIRE 448 272 448 144
WIRE 560 272 448 272
WIRE -592 288 -592 224
WIRE -592 288 -656 288
WIRE -176 288 -176 224
WIRE -176 288 -208 288
WIRE -144 288 -176 288
WIRE 688 288 688 144
WIRE 688 288 624 288
WIRE 736 288 688 288
WIRE 848 288 816 288
WIRE 976 288 976 144
WIRE 976 288 928 288
WIRE 1040 288 976 288
WIRE 2032 288 2032 160
WIRE 2144 288 2032 288
WIRE 32 304 32 224
WIRE 32 304 -80 304
WIRE 64 304 32 304
WIRE 240 304 224 304
WIRE 288 304 240 304
WIRE 496 304 368 304
WIRE 560 304 496 304
WIRE 1168 304 1168 144
WIRE 1168 304 1104 304
WIRE 1248 304 1168 304
WIRE 1376 304 1328 304
WIRE 1504 304 1504 176
WIRE 1504 304 1456 304
WIRE 1568 304 1504 304
WIRE 2272 304 2272 160
WIRE 2272 304 2208 304
WIRE 2320 304 2272 304
WIRE 2560 304 2560 160
WIRE 2560 304 2400 304
WIRE 2624 304 2560 304
WIRE -560 320 -656 320
WIRE -400 320 -480 320
WIRE -320 320 -400 320
WIRE -144 320 -208 320
WIRE 1040 320 992 320
WIRE 1696 320 1696 176
WIRE 1696 320 1632 320
WIRE 1760 320 1696 320
WIRE 2080 320 1952 320
WIRE 2144 320 2080 320
WIRE 2752 320 2752 160
WIRE 2752 320 2688 320
WIRE 2832 320 2752 320
WIRE 3088 320 3088 192
WIRE 3088 320 2912 320
WIRE 3152 320 3088 320
WIRE 1568 336 1504 336
WIRE 2624 336 2576 336
WIRE 3280 336 3280 192
WIRE 3280 336 3216 336
WIRE 3328 336 3280 336
WIRE 3344 336 3328 336
WIRE 992 352 992 320
WIRE 3152 352 3088 352
WIRE 2576 368 2576 336
WIRE 1504 384 1504 336
WIRE 3088 400 3088 352
WIRE 496 416 496 304
WIRE 560 416 496 416
WIRE 1168 416 1168 304
WIRE 1168 416 640 416
WIRE 2080 432 2080 320
WIRE 2144 432 2080 432
WIRE 2752 432 2752 320
WIRE 2752 432 2224 432
WIRE 1168 464 1168 416
WIRE 688 480 688 288
WIRE 1168 480 1168 464
WIRE 1696 512 1696 320
FLAG -592 224 0
FLAG -400 320 Vin
FLAG -80 -80 0
FLAG 32 -80 0
FLAG -80 48 +Vcc
FLAG 32 48 -Vcc
FLAG -112 272 +Vcc
FLAG -112 336 -Vcc
FLAG -208 320 Vin
FLAG 64 304 V1
FLAG 592 256 +Vcc
FLAG 1072 272 +Vcc
FLAG 1600 288 +Vcc
FLAG 592 320 -Vcc
FLAG 1072 336 -Vcc
FLAG 1600 352 -Vcc
FLAG 240 304 V1
FLAG 688 480 Vhp
FLAG 1168 464 Vlp
FLAG 1696 512 Vbp
FLAG 992 352 0
FLAG 1504 384 0
FLAG 2176 272 +Vcc
FLAG 2656 288 +Vcc
FLAG 3184 304 +Vcc
FLAG 2176 336 -Vcc
FLAG 2656 352 -Vcc
FLAG 3184 368 -Vcc
FLAG 2576 368 0
FLAG 3088 400 0
FLAG 1760 320 V2
FLAG 1872 320 V2
FLAG 3328 336 Vout
SYMBOL COMPOSITE_SRC -720 304 R180
SYMATTR InstName U1
SYMBOL res -464 304 R90
WINDOW 0 0 56 VBottom 2
WINDOW 3 32 56 VTop 2
SYMATTR InstName R1
SYMATTR Value 10k
SYMBOL voltage -80 16 R180
WINDOW 0 24 96 Left 2
WINDOW 3 24 16 Left 2
WINDOW 123 0 0 Left 0
WINDOW 39 0 0 Left 0
SYMATTR InstName V1
SYMATTR Value 15
SYMBOL voltage 32 16 R180
WINDOW 123 0 0 Left 0
WINDOW 39 0 0 Left 0
SYMATTR InstName V2
SYMATTR Value -15
SYMBOL res 384 288 R90
WINDOW 0 0 56 VBottom 2
WINDOW 3 32 56 VTop 2
SYMATTR InstName R2
SYMATTR Value 1k
SYMBOL res 640 128 R90
WINDOW 0 0 56 VBottom 2
WINDOW 3 32 56 VTop 2
SYMATTR InstName R3
SYMATTR Value 10k
SYMBOL res 832 272 R90
WINDOW 0 0 56 VBottom 2
WINDOW 3 32 56 VTop 2
SYMATTR InstName R4
SYMATTR Value 2.65k
SYMBOL res 1344 288 R90
WINDOW 0 0 56 VBottom 2
WINDOW 3 32 56 VTop 2
SYMATTR InstName R5
SYMATTR Value 2.65k
SYMBOL cap 1104 128 R90
WINDOW 0 0 32 VBottom 2
WINDOW 3 32 32 VTop 2
SYMATTR InstName C1
SYMATTR Value 10n
SYMBOL cap 1632 160 R90
WINDOW 0 0 32 VBottom 2
WINDOW 3 32 32 VTop 2
SYMATTR InstName C2
SYMATTR Value 10n
SYMBOL res 1328 48 R90
WINDOW 0 0 56 VBottom 2
WINDOW 3 32 56 VTop 2
SYMATTR InstName R6
SYMATTR Value 10k
SYMBOL res 656 400 R90
WINDOW 0 0 56 VBottom 2
WINDOW 3 32 56 VTop 2
SYMATTR InstName R7
SYMATTR Value 47k
SYMBOL OpAmps\\AD795 -112 240 R0
SYMATTR InstName U2
SYMBOL OpAmps\\LT1057 592 224 R0
SYMATTR InstName U3
SYMBOL OpAmps\\LT1057 1072 240 R0
SYMATTR InstName U4
SYMBOL OpAmps\\LT1057 1600 256 R0
SYMATTR InstName U5
SYMBOL res 1472 288 R90
WINDOW 0 0 56 VBottom 2
WINDOW 3 32 56 VTop 2
SYMATTR InstName R8
SYMATTR Value 1
SYMBOL res 944 272 R90
WINDOW 0 0 56 VBottom 2
WINDOW 3 32 56 VTop 2
SYMATTR InstName R9
SYMATTR Value 1
SYMBOL res 1968 304 R90
WINDOW 0 0 56 VBottom 2
WINDOW 3 32 56 VTop 2
SYMATTR InstName R10
SYMATTR Value 50k
SYMBOL res 2224 144 R90
WINDOW 0 0 56 VBottom 2
WINDOW 3 32 56 VTop 2
SYMATTR InstName R11
SYMATTR Value 10k
SYMBOL res 2416 288 R90
WINDOW 0 0 56 VBottom 2
WINDOW 3 32 56 VTop 2
SYMATTR InstName R12
SYMATTR Value 16k
SYMBOL res 2928 304 R90
WINDOW 0 0 56 VBottom 2
WINDOW 3 32 56 VTop 2
SYMATTR InstName R13
SYMATTR Value 16k
SYMBOL cap 2688 144 R90
WINDOW 0 0 32 VBottom 2
WINDOW 3 32 32 VTop 2
SYMATTR InstName C3
SYMATTR Value 10n
SYMBOL cap 3216 176 R90
WINDOW 0 0 32 VBottom 2
WINDOW 3 32 32 VTop 2
SYMATTR InstName C4
SYMATTR Value 10n
SYMBOL res 2912 64 R90
WINDOW 0 0 56 VBottom 2
WINDOW 3 32 56 VTop 2
SYMATTR InstName R14
SYMATTR Value 10k
SYMBOL res 2240 416 R90
WINDOW 0 0 56 VBottom 2
WINDOW 3 32 56 VTop 2
SYMATTR InstName R15
SYMATTR Value 10k
SYMBOL OpAmps\\LT1057 2176 240 R0
SYMATTR InstName U6
SYMBOL OpAmps\\LT1057 2656 256 R0
SYMATTR InstName U7
SYMBOL OpAmps\\LT1057 3184 272 R0
SYMATTR InstName U8
TEXT -816 392 Left 2 !.tran 0 20m
